  Page 1                                    Wed Jan 21 13:51:47 2026

  ******************************************************************
  *                           E P A N E T                          *
  *                   Hydraulic and Water Quality                  *
  *                   Analysis for Pipe Networks                   *
  *                          Version 2.3.03                        *
  ******************************************************************
  
  Analysis begun Wed Jan 21 13:51:49 2026
