  Page 1                                    Wed Mar 11 14:20:47 2026

  ******************************************************************
  *                           E P A N E T                          *
  *                   Hydraulic and Water Quality                  *
  *                   Analysis for Pipe Networks                   *
  *                          Version 2.3.03                        *
  ******************************************************************
  
  Analysis begun Wed Mar 11 14:20:49 2026
